data_image0
_cell_length_a       25.9876
_cell_length_b       23.664
_cell_length_c       45.2319
_cell_angle_alpha    90
_cell_angle_beta     90
_cell_angle_gamma    90

_symmetry_space_group_name_H-M    "P 1"
_symmetry_int_tables_number       1

loop_
  _symmetry_equiv_pos_as_xyz
  'x, y, z'

loop_
  _atom_site_label
  _atom_site_occupancy
  _atom_site_fract_x
  _atom_site_fract_y
  _atom_site_fract_z
  _atom_site_thermal_displace_type
  _atom_site_B_iso_or_equiv
  _atom_site_type_symbol
  Ti1      1.0000 0.00000  0.12415  0.44218  Biso   1.000  Ti
  O1       1.0000 0.00000  0.12415  0.48602  Biso   1.000  O 
  Ti2      1.0000 0.12500  0.06165  0.44218  Biso   1.000  Ti
  O2       1.0000 0.12500  0.12415  0.47013  Biso   1.000  O 
  O3       1.0000 0.04868  0.06165  0.44217  Biso   1.000  O 
  O4       1.0000 0.20132  0.06165  0.44217  Biso   1.000  O 
  Ti3      1.0000 0.12500  0.12415  0.51400  Biso   1.000  Ti
  O5       1.0000 0.12500  0.12415  0.55783  Biso   1.000  O 
  Ti4      1.0000 0.25000  0.06165  0.51400  Biso   1.000  Ti
  O6       1.0000 0.25000  0.12415  0.54195  Biso   1.000  O 
  O7       1.0000 0.17368  0.06165  0.51398  Biso   1.000  O 
  O8       1.0000 0.07632  0.06165  0.51398  Biso   1.000  O 
  Ti5      1.0000 0.00000  0.24915  0.44218  Biso   1.000  Ti
  O9       1.0000 0.00000  0.24915  0.48602  Biso   1.000  O 
  Ti6      1.0000 0.12500  0.18665  0.44218  Biso   1.000  Ti
  O10      1.0000 0.12500  0.24915  0.47013  Biso   1.000  O 
  O11      1.0000 0.04868  0.18665  0.44217  Biso   1.000  O 
  O12      1.0000 0.20132  0.18665  0.44217  Biso   1.000  O 
  Ti7      1.0000 0.12500  0.24915  0.51400  Biso   1.000  Ti
  O13      1.0000 0.12500  0.24915  0.55783  Biso   1.000  O 
  Ti8      1.0000 0.25000  0.18665  0.51400  Biso   1.000  Ti
  O14      1.0000 0.25000  0.24915  0.54195  Biso   1.000  O 
  O15      1.0000 0.17368  0.18665  0.51398  Biso   1.000  O 
  O16      1.0000 0.07632  0.18665  0.51398  Biso   1.000  O 
  Ti9      1.0000 0.00000  0.37415  0.44218  Biso   1.000  Ti
  O17      1.0000 0.00000  0.37415  0.48602  Biso   1.000  O 
  Ti10     1.0000 0.12500  0.31165  0.44218  Biso   1.000  Ti
  O18      1.0000 0.12500  0.37415  0.47013  Biso   1.000  O 
  O19      1.0000 0.04868  0.31165  0.44217  Biso   1.000  O 
  O20      1.0000 0.20132  0.31165  0.44217  Biso   1.000  O 
  Ti11     1.0000 0.12500  0.37415  0.51400  Biso   1.000  Ti
  O21      1.0000 0.12500  0.37415  0.55783  Biso   1.000  O 
  Ti12     1.0000 0.25000  0.31165  0.51400  Biso   1.000  Ti
  O22      1.0000 0.25000  0.37415  0.54195  Biso   1.000  O 
  O23      1.0000 0.17368  0.31165  0.51398  Biso   1.000  O 
  O24      1.0000 0.07632  0.31165  0.51398  Biso   1.000  O 
  Ti13     1.0000 0.00000  0.49915  0.44218  Biso   1.000  Ti
  O25      1.0000 0.00000  0.49915  0.48602  Biso   1.000  O 
  Ti14     1.0000 0.12500  0.43665  0.44218  Biso   1.000  Ti
  O26      1.0000 0.12500  0.49915  0.47013  Biso   1.000  O 
  O27      1.0000 0.04868  0.43665  0.44217  Biso   1.000  O 
  O28      1.0000 0.20132  0.43665  0.44217  Biso   1.000  O 
  Ti15     1.0000 0.12500  0.49915  0.51400  Biso   1.000  Ti
  O29      1.0000 0.12500  0.49915  0.55783  Biso   1.000  O 
  Ti16     1.0000 0.25000  0.43665  0.51400  Biso   1.000  Ti
  O30      1.0000 0.25000  0.49915  0.54195  Biso   1.000  O 
  O31      1.0000 0.17368  0.43665  0.51398  Biso   1.000  O 
  O32      1.0000 0.07632  0.43665  0.51398  Biso   1.000  O 
  Ti17     1.0000 0.00000  0.62415  0.44218  Biso   1.000  Ti
  O33      1.0000 0.00000  0.62415  0.48602  Biso   1.000  O 
  Ti18     1.0000 0.12500  0.56165  0.44218  Biso   1.000  Ti
  O34      1.0000 0.12500  0.62415  0.47013  Biso   1.000  O 
  O35      1.0000 0.04868  0.56165  0.44217  Biso   1.000  O 
  O36      1.0000 0.20132  0.56165  0.44217  Biso   1.000  O 
  Ti19     1.0000 0.12500  0.62415  0.51400  Biso   1.000  Ti
  O37      1.0000 0.12500  0.62415  0.55783  Biso   1.000  O 
  Ti20     1.0000 0.25000  0.56165  0.51400  Biso   1.000  Ti
  O38      1.0000 0.25000  0.62415  0.54195  Biso   1.000  O 
  O39      1.0000 0.17368  0.56165  0.51398  Biso   1.000  O 
  O40      1.0000 0.07632  0.56165  0.51398  Biso   1.000  O 
  Ti21     1.0000 0.00000  0.74915  0.44218  Biso   1.000  Ti
  O41      1.0000 0.00000  0.74915  0.48602  Biso   1.000  O 
  Ti22     1.0000 0.12500  0.68665  0.44218  Biso   1.000  Ti
  O42      1.0000 0.12500  0.74915  0.47013  Biso   1.000  O 
  O43      1.0000 0.04868  0.68665  0.44217  Biso   1.000  O 
  O44      1.0000 0.20132  0.68665  0.44217  Biso   1.000  O 
  Ti23     1.0000 0.12500  0.74915  0.51400  Biso   1.000  Ti
  O45      1.0000 0.12500  0.74915  0.55783  Biso   1.000  O 
  Ti24     1.0000 0.25000  0.68665  0.51400  Biso   1.000  Ti
  O46      1.0000 0.25000  0.74915  0.54195  Biso   1.000  O 
  O47      1.0000 0.17368  0.68665  0.51398  Biso   1.000  O 
  O48      1.0000 0.07632  0.68665  0.51398  Biso   1.000  O 
  Ti25     1.0000 0.00000  0.87415  0.44218  Biso   1.000  Ti
  O49      1.0000 0.00000  0.87415  0.48602  Biso   1.000  O 
  Ti26     1.0000 0.12500  0.81165  0.44218  Biso   1.000  Ti
  O50      1.0000 0.12500  0.87415  0.47013  Biso   1.000  O 
  O51      1.0000 0.04868  0.81165  0.44217  Biso   1.000  O 
  O52      1.0000 0.20132  0.81165  0.44217  Biso   1.000  O 
  Ti27     1.0000 0.12500  0.87415  0.51400  Biso   1.000  Ti
  O53      1.0000 0.12500  0.87415  0.55783  Biso   1.000  O 
  Ti28     1.0000 0.25000  0.81165  0.51400  Biso   1.000  Ti
  O54      1.0000 0.25000  0.87415  0.54195  Biso   1.000  O 
  O55      1.0000 0.17368  0.81165  0.51398  Biso   1.000  O 
  O56      1.0000 0.07632  0.81165  0.51398  Biso   1.000  O 
  Ti29     1.0000 0.00000  0.99915  0.44218  Biso   1.000  Ti
  O57      1.0000 0.00000  0.99915  0.48602  Biso   1.000  O 
  Ti30     1.0000 0.12500  0.93665  0.44218  Biso   1.000  Ti
  O58      1.0000 0.12500  0.99915  0.47013  Biso   1.000  O 
  O59      1.0000 0.04868  0.93665  0.44217  Biso   1.000  O 
  O60      1.0000 0.20132  0.93665  0.44217  Biso   1.000  O 
  Ti31     1.0000 0.12500  0.99915  0.51400  Biso   1.000  Ti
  O61      1.0000 0.12500  0.99915  0.55783  Biso   1.000  O 
  Ti32     1.0000 0.25000  0.93665  0.51400  Biso   1.000  Ti
  O62      1.0000 0.25000  0.99915  0.54195  Biso   1.000  O 
  O63      1.0000 0.17368  0.93665  0.51398  Biso   1.000  O 
  O64      1.0000 0.07632  0.93665  0.51398  Biso   1.000  O 
  Ti33     1.0000 0.25000  0.12415  0.44218  Biso   1.000  Ti
  O65      1.0000 0.25000  0.12415  0.48602  Biso   1.000  O 
  Ti34     1.0000 0.37500  0.06165  0.44218  Biso   1.000  Ti
  O66      1.0000 0.37500  0.12415  0.47013  Biso   1.000  O 
  O67      1.0000 0.29868  0.06165  0.44217  Biso   1.000  O 
  O68      1.0000 0.45132  0.06165  0.44217  Biso   1.000  O 
  Ti35     1.0000 0.37500  0.12415  0.51400  Biso   1.000  Ti
  O69      1.0000 0.37500  0.12415  0.55783  Biso   1.000  O 
  Ti36     1.0000 0.50000  0.06165  0.51400  Biso   1.000  Ti
  O70      1.0000 0.50000  0.12415  0.54195  Biso   1.000  O 
  O71      1.0000 0.42368  0.06165  0.51398  Biso   1.000  O 
  O72      1.0000 0.32632  0.06165  0.51398  Biso   1.000  O 
  Ti37     1.0000 0.25000  0.24915  0.44218  Biso   1.000  Ti
  O73      1.0000 0.25000  0.24915  0.48602  Biso   1.000  O 
  Ti38     1.0000 0.37500  0.18665  0.44218  Biso   1.000  Ti
  O74      1.0000 0.37500  0.24915  0.47013  Biso   1.000  O 
  O75      1.0000 0.29868  0.18665  0.44217  Biso   1.000  O 
  O76      1.0000 0.45132  0.18665  0.44217  Biso   1.000  O 
  Ti39     1.0000 0.37500  0.24915  0.51400  Biso   1.000  Ti
  O77      1.0000 0.37500  0.24915  0.55783  Biso   1.000  O 
  Ti40     1.0000 0.50000  0.18665  0.51400  Biso   1.000  Ti
  O78      1.0000 0.50000  0.24915  0.54195  Biso   1.000  O 
  O79      1.0000 0.42368  0.18665  0.51398  Biso   1.000  O 
  O80      1.0000 0.32632  0.18665  0.51398  Biso   1.000  O 
  Ti41     1.0000 0.25000  0.37415  0.44218  Biso   1.000  Ti
  O81      1.0000 0.25000  0.37415  0.48602  Biso   1.000  O 
  Ti42     1.0000 0.37500  0.31165  0.44218  Biso   1.000  Ti
  O82      1.0000 0.37500  0.37415  0.47013  Biso   1.000  O 
  O83      1.0000 0.29868  0.31165  0.44217  Biso   1.000  O 
  O84      1.0000 0.45132  0.31165  0.44217  Biso   1.000  O 
  Ti43     1.0000 0.37500  0.37415  0.51400  Biso   1.000  Ti
  O85      1.0000 0.37500  0.37415  0.55783  Biso   1.000  O 
  Ti44     1.0000 0.50000  0.31165  0.51400  Biso   1.000  Ti
  O86      1.0000 0.50000  0.37415  0.54195  Biso   1.000  O 
  O87      1.0000 0.42368  0.31165  0.51398  Biso   1.000  O 
  O88      1.0000 0.32632  0.31165  0.51398  Biso   1.000  O 
  Ti45     1.0000 0.25000  0.49915  0.44218  Biso   1.000  Ti
  O89      1.0000 0.25000  0.49915  0.48602  Biso   1.000  O 
  Ti46     1.0000 0.37500  0.43665  0.44218  Biso   1.000  Ti
  O90      1.0000 0.37500  0.49915  0.47013  Biso   1.000  O 
  O91      1.0000 0.29868  0.43665  0.44217  Biso   1.000  O 
  O92      1.0000 0.45132  0.43665  0.44217  Biso   1.000  O 
  Ti47     1.0000 0.37500  0.49915  0.51400  Biso   1.000  Ti
  O93      1.0000 0.37500  0.49915  0.55783  Biso   1.000  O 
  Ti48     1.0000 0.50000  0.43665  0.51400  Biso   1.000  Ti
  O94      1.0000 0.50000  0.49915  0.54195  Biso   1.000  O 
  O95      1.0000 0.42368  0.43665  0.51398  Biso   1.000  O 
  O96      1.0000 0.32632  0.43665  0.51398  Biso   1.000  O 
  Ti49     1.0000 0.25000  0.62415  0.44218  Biso   1.000  Ti
  O97      1.0000 0.25000  0.62415  0.48602  Biso   1.000  O 
  Ti50     1.0000 0.37500  0.56165  0.44218  Biso   1.000  Ti
  O98      1.0000 0.37500  0.62415  0.47013  Biso   1.000  O 
  O99      1.0000 0.29868  0.56165  0.44217  Biso   1.000  O 
  O100     1.0000 0.45132  0.56165  0.44217  Biso   1.000  O 
  Ti51     1.0000 0.37500  0.62415  0.51400  Biso   1.000  Ti
  O101     1.0000 0.37500  0.62415  0.55783  Biso   1.000  O 
  Ti52     1.0000 0.50000  0.56165  0.51400  Biso   1.000  Ti
  O102     1.0000 0.50000  0.62415  0.54195  Biso   1.000  O 
  O103     1.0000 0.42368  0.56165  0.51398  Biso   1.000  O 
  O104     1.0000 0.32632  0.56165  0.51398  Biso   1.000  O 
  Ti53     1.0000 0.25000  0.74915  0.44218  Biso   1.000  Ti
  O105     1.0000 0.25000  0.74915  0.48602  Biso   1.000  O 
  Ti54     1.0000 0.37500  0.68665  0.44218  Biso   1.000  Ti
  O106     1.0000 0.37500  0.74915  0.47013  Biso   1.000  O 
  O107     1.0000 0.29868  0.68665  0.44217  Biso   1.000  O 
  O108     1.0000 0.45132  0.68665  0.44217  Biso   1.000  O 
  Ti55     1.0000 0.37500  0.74915  0.51400  Biso   1.000  Ti
  O109     1.0000 0.37500  0.74915  0.55783  Biso   1.000  O 
  Ti56     1.0000 0.50000  0.68665  0.51400  Biso   1.000  Ti
  O110     1.0000 0.50000  0.74915  0.54195  Biso   1.000  O 
  O111     1.0000 0.42368  0.68665  0.51398  Biso   1.000  O 
  O112     1.0000 0.32632  0.68665  0.51398  Biso   1.000  O 
  Ti57     1.0000 0.25000  0.87415  0.44218  Biso   1.000  Ti
  O113     1.0000 0.25000  0.87415  0.48602  Biso   1.000  O 
  Ti58     1.0000 0.37500  0.81165  0.44218  Biso   1.000  Ti
  O114     1.0000 0.37500  0.87415  0.47013  Biso   1.000  O 
  O115     1.0000 0.29868  0.81165  0.44217  Biso   1.000  O 
  O116     1.0000 0.45132  0.81165  0.44217  Biso   1.000  O 
  Ti59     1.0000 0.37500  0.87415  0.51400  Biso   1.000  Ti
  O117     1.0000 0.37500  0.87415  0.55783  Biso   1.000  O 
  Ti60     1.0000 0.50000  0.81165  0.51400  Biso   1.000  Ti
  O118     1.0000 0.50000  0.87415  0.54195  Biso   1.000  O 
  O119     1.0000 0.42368  0.81165  0.51398  Biso   1.000  O 
  O120     1.0000 0.32632  0.81165  0.51398  Biso   1.000  O 
  Ti61     1.0000 0.25000  0.99915  0.44218  Biso   1.000  Ti
  O121     1.0000 0.25000  0.99915  0.48602  Biso   1.000  O 
  Ti62     1.0000 0.37500  0.93665  0.44218  Biso   1.000  Ti
  O122     1.0000 0.37500  0.99915  0.47013  Biso   1.000  O 
  O123     1.0000 0.29868  0.93665  0.44217  Biso   1.000  O 
  O124     1.0000 0.45132  0.93665  0.44217  Biso   1.000  O 
  Ti63     1.0000 0.37500  0.99915  0.51400  Biso   1.000  Ti
  O125     1.0000 0.37500  0.99915  0.55783  Biso   1.000  O 
  Ti64     1.0000 0.50000  0.93665  0.51400  Biso   1.000  Ti
  O126     1.0000 0.50000  0.99915  0.54195  Biso   1.000  O 
  O127     1.0000 0.42368  0.93665  0.51398  Biso   1.000  O 
  O128     1.0000 0.32632  0.93665  0.51398  Biso   1.000  O 
  Ti65     1.0000 0.50000  0.12415  0.44218  Biso   1.000  Ti
  O129     1.0000 0.50000  0.12415  0.48602  Biso   1.000  O 
  Ti66     1.0000 0.62500  0.06165  0.44218  Biso   1.000  Ti
  O130     1.0000 0.62500  0.12415  0.47013  Biso   1.000  O 
  O131     1.0000 0.54868  0.06165  0.44217  Biso   1.000  O 
  O132     1.0000 0.70132  0.06165  0.44217  Biso   1.000  O 
  Ti67     1.0000 0.62500  0.12415  0.51400  Biso   1.000  Ti
  O133     1.0000 0.62500  0.12415  0.55783  Biso   1.000  O 
  Ti68     1.0000 0.75000  0.06165  0.51400  Biso   1.000  Ti
  O134     1.0000 0.75000  0.12415  0.54195  Biso   1.000  O 
  O135     1.0000 0.67368  0.06165  0.51398  Biso   1.000  O 
  O136     1.0000 0.57632  0.06165  0.51398  Biso   1.000  O 
  Ti69     1.0000 0.50000  0.24915  0.44218  Biso   1.000  Ti
  O137     1.0000 0.50000  0.24915  0.48602  Biso   1.000  O 
  Ti70     1.0000 0.62500  0.18665  0.44218  Biso   1.000  Ti
  O138     1.0000 0.62500  0.24915  0.47013  Biso   1.000  O 
  O139     1.0000 0.54868  0.18665  0.44217  Biso   1.000  O 
  O140     1.0000 0.70132  0.18665  0.44217  Biso   1.000  O 
  Ti71     1.0000 0.62500  0.24915  0.51400  Biso   1.000  Ti
  O141     1.0000 0.62500  0.24915  0.55783  Biso   1.000  O 
  Ti72     1.0000 0.75000  0.18665  0.51400  Biso   1.000  Ti
  O142     1.0000 0.75000  0.24915  0.54195  Biso   1.000  O 
  O143     1.0000 0.67368  0.18665  0.51398  Biso   1.000  O 
  O144     1.0000 0.57632  0.18665  0.51398  Biso   1.000  O 
  Ti73     1.0000 0.50000  0.37415  0.44218  Biso   1.000  Ti
  O145     1.0000 0.50000  0.37415  0.48602  Biso   1.000  O 
  Ti74     1.0000 0.62500  0.31165  0.44218  Biso   1.000  Ti
  O146     1.0000 0.62500  0.37415  0.47013  Biso   1.000  O 
  O147     1.0000 0.54868  0.31165  0.44217  Biso   1.000  O 
  O148     1.0000 0.70132  0.31165  0.44217  Biso   1.000  O 
  Ti75     1.0000 0.62500  0.37415  0.51400  Biso   1.000  Ti
  O149     1.0000 0.62500  0.37415  0.55783  Biso   1.000  O 
  Ti76     1.0000 0.75000  0.31165  0.51400  Biso   1.000  Ti
  O150     1.0000 0.75000  0.37415  0.54195  Biso   1.000  O 
  O151     1.0000 0.67368  0.31165  0.51398  Biso   1.000  O 
  O152     1.0000 0.57632  0.31165  0.51398  Biso   1.000  O 
  Ti77     1.0000 0.50000  0.49915  0.44218  Biso   1.000  Ti
  O153     1.0000 0.50000  0.49915  0.48602  Biso   1.000  O 
  Ti78     1.0000 0.62500  0.43665  0.44218  Biso   1.000  Ti
  O154     1.0000 0.62500  0.49915  0.47013  Biso   1.000  O 
  O155     1.0000 0.54868  0.43665  0.44217  Biso   1.000  O 
  O156     1.0000 0.70132  0.43665  0.44217  Biso   1.000  O 
  Ti79     1.0000 0.62500  0.49915  0.51400  Biso   1.000  Ti
  O157     1.0000 0.62500  0.49915  0.55783  Biso   1.000  O 
  Ti80     1.0000 0.75000  0.43665  0.51400  Biso   1.000  Ti
  O158     1.0000 0.75000  0.49915  0.54195  Biso   1.000  O 
  O159     1.0000 0.67368  0.43665  0.51398  Biso   1.000  O 
  O160     1.0000 0.57632  0.43665  0.51398  Biso   1.000  O 
  Ti81     1.0000 0.50000  0.62415  0.44218  Biso   1.000  Ti
  O161     1.0000 0.50000  0.62415  0.48602  Biso   1.000  O 
  Ti82     1.0000 0.62500  0.56165  0.44218  Biso   1.000  Ti
  O162     1.0000 0.62500  0.62415  0.47013  Biso   1.000  O 
  O163     1.0000 0.54868  0.56165  0.44217  Biso   1.000  O 
  O164     1.0000 0.70132  0.56165  0.44217  Biso   1.000  O 
  Ti83     1.0000 0.62500  0.62415  0.51400  Biso   1.000  Ti
  O165     1.0000 0.62500  0.62415  0.55783  Biso   1.000  O 
  Ti84     1.0000 0.75000  0.56165  0.51400  Biso   1.000  Ti
  O166     1.0000 0.75000  0.62415  0.54195  Biso   1.000  O 
  O167     1.0000 0.67368  0.56165  0.51398  Biso   1.000  O 
  O168     1.0000 0.57632  0.56165  0.51398  Biso   1.000  O 
  Ti85     1.0000 0.50000  0.74915  0.44218  Biso   1.000  Ti
  O169     1.0000 0.50000  0.74915  0.48602  Biso   1.000  O 
  Ti86     1.0000 0.62500  0.68665  0.44218  Biso   1.000  Ti
  O170     1.0000 0.62500  0.74915  0.47013  Biso   1.000  O 
  O171     1.0000 0.54868  0.68665  0.44217  Biso   1.000  O 
  O172     1.0000 0.70132  0.68665  0.44217  Biso   1.000  O 
  Ti87     1.0000 0.62500  0.74915  0.51400  Biso   1.000  Ti
  O173     1.0000 0.62500  0.74915  0.55783  Biso   1.000  O 
  Ti88     1.0000 0.75000  0.68665  0.51400  Biso   1.000  Ti
  O174     1.0000 0.75000  0.74915  0.54195  Biso   1.000  O 
  O175     1.0000 0.67368  0.68665  0.51398  Biso   1.000  O 
  O176     1.0000 0.57632  0.68665  0.51398  Biso   1.000  O 
  Ti89     1.0000 0.50000  0.87415  0.44218  Biso   1.000  Ti
  O177     1.0000 0.50000  0.87415  0.48602  Biso   1.000  O 
  Ti90     1.0000 0.62500  0.81165  0.44218  Biso   1.000  Ti
  O178     1.0000 0.62500  0.87415  0.47013  Biso   1.000  O 
  O179     1.0000 0.54868  0.81165  0.44217  Biso   1.000  O 
  O180     1.0000 0.70132  0.81165  0.44217  Biso   1.000  O 
  Ti91     1.0000 0.62500  0.87415  0.51400  Biso   1.000  Ti
  O181     1.0000 0.62500  0.87415  0.55783  Biso   1.000  O 
  Ti92     1.0000 0.75000  0.81165  0.51400  Biso   1.000  Ti
  O182     1.0000 0.75000  0.87415  0.54195  Biso   1.000  O 
  O183     1.0000 0.67368  0.81165  0.51398  Biso   1.000  O 
  O184     1.0000 0.57632  0.81165  0.51398  Biso   1.000  O 
  Ti93     1.0000 0.50000  0.99915  0.44218  Biso   1.000  Ti
  O185     1.0000 0.50000  0.99915  0.48602  Biso   1.000  O 
  Ti94     1.0000 0.62500  0.93665  0.44218  Biso   1.000  Ti
  O186     1.0000 0.62500  0.99915  0.47013  Biso   1.000  O 
  O187     1.0000 0.54868  0.93665  0.44217  Biso   1.000  O 
  O188     1.0000 0.70132  0.93665  0.44217  Biso   1.000  O 
  Ti95     1.0000 0.62500  0.99915  0.51400  Biso   1.000  Ti
  O189     1.0000 0.62500  0.99915  0.55783  Biso   1.000  O 
  Ti96     1.0000 0.75000  0.93665  0.51400  Biso   1.000  Ti
  O190     1.0000 0.75000  0.99915  0.54195  Biso   1.000  O 
  O191     1.0000 0.67368  0.93665  0.51398  Biso   1.000  O 
  O192     1.0000 0.57632  0.93665  0.51398  Biso   1.000  O 
  Ti97     1.0000 0.75000  0.12415  0.44218  Biso   1.000  Ti
  O193     1.0000 0.75000  0.12415  0.48602  Biso   1.000  O 
  Ti98     1.0000 0.87500  0.06165  0.44218  Biso   1.000  Ti
  O194     1.0000 0.87500  0.12415  0.47013  Biso   1.000  O 
  O195     1.0000 0.79868  0.06165  0.44217  Biso   1.000  O 
  O196     1.0000 0.95132  0.06165  0.44217  Biso   1.000  O 
  Ti99     1.0000 0.87500  0.12415  0.51400  Biso   1.000  Ti
  O197     1.0000 0.87500  0.12415  0.55783  Biso   1.000  O 
  Ti100    1.0000 0.00000  0.06165  0.51400  Biso   1.000  Ti
  O198     1.0000 0.00000  0.12415  0.54195  Biso   1.000  O 
  O199     1.0000 0.92368  0.06165  0.51398  Biso   1.000  O 
  O200     1.0000 0.82632  0.06165  0.51398  Biso   1.000  O 
  Ti101    1.0000 0.75000  0.24915  0.44218  Biso   1.000  Ti
  O201     1.0000 0.75000  0.24915  0.48602  Biso   1.000  O 
  Ti102    1.0000 0.87500  0.18665  0.44218  Biso   1.000  Ti
  O202     1.0000 0.87500  0.24915  0.47013  Biso   1.000  O 
  O203     1.0000 0.79868  0.18665  0.44217  Biso   1.000  O 
  O204     1.0000 0.95132  0.18665  0.44217  Biso   1.000  O 
  Ti103    1.0000 0.87500  0.24915  0.51400  Biso   1.000  Ti
  O205     1.0000 0.87500  0.24915  0.55783  Biso   1.000  O 
  Ti104    1.0000 0.00000  0.18665  0.51400  Biso   1.000  Ti
  O206     1.0000 0.00000  0.24915  0.54195  Biso   1.000  O 
  O207     1.0000 0.92368  0.18665  0.51398  Biso   1.000  O 
  O208     1.0000 0.82632  0.18665  0.51398  Biso   1.000  O 
  Ti105    1.0000 0.75000  0.37415  0.44218  Biso   1.000  Ti
  O209     1.0000 0.75000  0.37415  0.48602  Biso   1.000  O 
  Ti106    1.0000 0.87500  0.31165  0.44218  Biso   1.000  Ti
  O210     1.0000 0.87500  0.37415  0.47013  Biso   1.000  O 
  O211     1.0000 0.79868  0.31165  0.44217  Biso   1.000  O 
  O212     1.0000 0.95132  0.31165  0.44217  Biso   1.000  O 
  Ti107    1.0000 0.87500  0.37415  0.51400  Biso   1.000  Ti
  O213     1.0000 0.87500  0.37415  0.55783  Biso   1.000  O 
  Ti108    1.0000 0.00000  0.31165  0.51400  Biso   1.000  Ti
  O214     1.0000 0.00000  0.37415  0.54195  Biso   1.000  O 
  O215     1.0000 0.92368  0.31165  0.51398  Biso   1.000  O 
  O216     1.0000 0.82632  0.31165  0.51398  Biso   1.000  O 
  Ti109    1.0000 0.75000  0.49915  0.44218  Biso   1.000  Ti
  O217     1.0000 0.75000  0.49915  0.48602  Biso   1.000  O 
  Ti110    1.0000 0.87500  0.43665  0.44218  Biso   1.000  Ti
  O218     1.0000 0.87500  0.49915  0.47013  Biso   1.000  O 
  O219     1.0000 0.79868  0.43665  0.44217  Biso   1.000  O 
  O220     1.0000 0.95132  0.43665  0.44217  Biso   1.000  O 
  Ti111    1.0000 0.87500  0.49915  0.51400  Biso   1.000  Ti
  O221     1.0000 0.87500  0.49915  0.55783  Biso   1.000  O 
  Ti112    1.0000 0.00000  0.43665  0.51400  Biso   1.000  Ti
  O222     1.0000 0.00000  0.49915  0.54195  Biso   1.000  O 
  O223     1.0000 0.92368  0.43665  0.51398  Biso   1.000  O 
  O224     1.0000 0.82632  0.43665  0.51398  Biso   1.000  O 
  Ti113    1.0000 0.75000  0.62415  0.44218  Biso   1.000  Ti
  O225     1.0000 0.75000  0.62415  0.48602  Biso   1.000  O 
  Ti114    1.0000 0.87500  0.56165  0.44218  Biso   1.000  Ti
  O226     1.0000 0.87500  0.62415  0.47013  Biso   1.000  O 
  O227     1.0000 0.79868  0.56165  0.44217  Biso   1.000  O 
  O228     1.0000 0.95132  0.56165  0.44217  Biso   1.000  O 
  Ti115    1.0000 0.87500  0.62415  0.51400  Biso   1.000  Ti
  O229     1.0000 0.87500  0.62415  0.55783  Biso   1.000  O 
  Ti116    1.0000 0.00000  0.56165  0.51400  Biso   1.000  Ti
  O230     1.0000 0.00000  0.62415  0.54195  Biso   1.000  O 
  O231     1.0000 0.92368  0.56165  0.51398  Biso   1.000  O 
  O232     1.0000 0.82632  0.56165  0.51398  Biso   1.000  O 
  Ti117    1.0000 0.75000  0.74915  0.44218  Biso   1.000  Ti
  O233     1.0000 0.75000  0.74915  0.48602  Biso   1.000  O 
  Ti118    1.0000 0.87500  0.68665  0.44218  Biso   1.000  Ti
  O234     1.0000 0.87500  0.74915  0.47013  Biso   1.000  O 
  O235     1.0000 0.79868  0.68665  0.44217  Biso   1.000  O 
  O236     1.0000 0.95132  0.68665  0.44217  Biso   1.000  O 
  Ti119    1.0000 0.87500  0.74915  0.51400  Biso   1.000  Ti
  O237     1.0000 0.87500  0.74915  0.55783  Biso   1.000  O 
  Ti120    1.0000 0.00000  0.68665  0.51400  Biso   1.000  Ti
  O238     1.0000 0.00000  0.74915  0.54195  Biso   1.000  O 
  O239     1.0000 0.92368  0.68665  0.51398  Biso   1.000  O 
  O240     1.0000 0.82632  0.68665  0.51398  Biso   1.000  O 
  Ti121    1.0000 0.75000  0.87415  0.44218  Biso   1.000  Ti
  O241     1.0000 0.75000  0.87415  0.48602  Biso   1.000  O 
  Ti122    1.0000 0.87500  0.81165  0.44218  Biso   1.000  Ti
  O242     1.0000 0.87500  0.87415  0.47013  Biso   1.000  O 
  O243     1.0000 0.79868  0.81165  0.44217  Biso   1.000  O 
  O244     1.0000 0.95132  0.81165  0.44217  Biso   1.000  O 
  Ti123    1.0000 0.87500  0.87415  0.51400  Biso   1.000  Ti
  O245     1.0000 0.87500  0.87415  0.55783  Biso   1.000  O 
  Ti124    1.0000 0.00000  0.81165  0.51400  Biso   1.000  Ti
  O246     1.0000 0.00000  0.87415  0.54195  Biso   1.000  O 
  O247     1.0000 0.92368  0.81165  0.51398  Biso   1.000  O 
  O248     1.0000 0.82632  0.81165  0.51398  Biso   1.000  O 
  Ti125    1.0000 0.75000  0.99915  0.44218  Biso   1.000  Ti
  O249     1.0000 0.75000  0.99915  0.48602  Biso   1.000  O 
  Ti126    1.0000 0.87500  0.93665  0.44218  Biso   1.000  Ti
  O250     1.0000 0.87500  0.99915  0.47013  Biso   1.000  O 
  O251     1.0000 0.79868  0.93665  0.44217  Biso   1.000  O 
  O252     1.0000 0.95132  0.93665  0.44217  Biso   1.000  O 
  Ti127    1.0000 0.87500  0.99915  0.51400  Biso   1.000  Ti
  O253     1.0000 0.87500  0.99915  0.55783  Biso   1.000  O 
  Ti128    1.0000 0.00000  0.93665  0.51400  Biso   1.000  Ti
  O254     1.0000 0.00000  0.99915  0.54195  Biso   1.000  O 
  O255     1.0000 0.92368  0.93665  0.51398  Biso   1.000  O 
  O256     1.0000 0.82632  0.93665  0.51398  Biso   1.000  O 
